258
New structure
 O    1.453500    0.000000    3.242500
 O   -0.921500    4.113621    3.242500
 O   -3.296500    8.227242    3.242500
 O    6.203500    0.000000    3.242500
 O    3.828500    4.113621    3.242500
 O    1.453500    8.227242    3.242500
 O   10.953500    0.000000    3.242500
 O    8.578500    4.113621    3.242500
 O    6.203500    8.227242    3.242500
 O    3.296500    0.000000    9.727500
 O    0.921500    4.113621    9.727500
 O   -1.453500    8.227242    9.727500
 O    8.046500    0.000000    9.727500
 O    5.671500    4.113621    9.727500
 O    3.296500    8.227242    9.727500
 O   12.796500    0.000000    9.727500
 O   10.421500    4.113621    9.727500
 O    8.046500    8.227242    9.727500
 O   -0.726750    1.258768    3.242500
 O   -3.101750    5.372388    3.242500
 O   -5.476750    9.486010    3.242500
 O    4.023250    1.258768    3.242500
 O    1.648250    5.372388    3.242500
 O   -0.726750    9.486010    3.242500
 O    8.773250    1.258768    3.242500
 O    6.398250    5.372388    3.242500
 O    4.023250    9.486010    3.242500
 O   -1.648250    2.854853    9.727500
 O   -4.023250    6.968473    9.727500
 O   -6.398250   11.082094    9.727500
 O    3.101750    2.854853    9.727500
 O    0.726750    6.968473    9.727500
 O   -1.648250   11.082094    9.727500
 O    7.851750    2.854853    9.727500
 O    5.476750    6.968473    9.727500
 O    3.101750   11.082094    9.727500
 O    1.648250    2.854853    3.242500
 O   -0.726750    6.968473    3.242500
 O   -3.101750   11.082094    3.242500
 O    6.398250    2.854853    3.242500
 O    4.023250    6.968473    3.242500
 O    1.648250   11.082094    3.242500
 O   11.148250    2.854853    3.242500
 O    8.773250    6.968473    3.242500
 O    6.398250   11.082094    3.242500
 O    0.726750    1.258768    9.727500
 O   -1.648250    5.372388    9.727500
 O   -4.023250    9.486010    9.727500
 O    5.476750    1.258768    9.727500
 O    3.101750    5.372388    9.727500
 O    0.726750    9.486010    9.727500
 O   10.226750    1.258768    9.727500
 O    7.851750    5.372388    9.727500
 O    5.476750    9.486010    9.727500
 O    3.828500    1.371207    7.565833
 O    1.453500    5.484828    7.565833
 O   -0.921500    9.598448    7.565833
 O    8.578501    1.371207    7.565833
 O    6.203500    5.484828    7.565833
 O    3.828501    9.598448    7.565833
 O    0.921500    1.371207    1.080833
 O   -1.453500    5.484828    1.080833
 O   -3.828500    9.598448    1.080833
 O    5.671500    1.371207    1.080833
 O    3.296500    5.484828    1.080833
 O    0.921500    9.598448    1.080833
 O   10.421500    1.371207    1.080833
 O    8.046500    5.484828    1.080833
 O    5.671501    9.598448    1.080833
 O    1.648250    2.629975    7.565833
 O   -0.726750    6.743595    7.565833
 O   -3.101750   10.857216    7.565833
 O    6.398251    2.629975    7.565833
 O    4.023251    6.743595    7.565833
 O    1.648251   10.857216    7.565833
 O   11.148251    2.629975    7.565833
 O    8.773251    6.743595    7.565833
 O    6.398251   10.857216    7.565833
 O    3.101750    0.112439    1.080833
 O    0.726750    4.226060    1.080833
 O   -1.648250    8.339680    1.080833
 O    7.851750    0.112439    1.080833
 O    5.476750    4.226060    1.080833
 O    3.101751    8.339680    1.080833
 O   12.601750    0.112439    1.080833
 O   10.226750    4.226060    1.080833
 O    7.851750    8.339680    1.080833
 O    1.648250    0.112439    7.565833
 O   -0.726750    4.226060    7.565833
 O   -3.101750    8.339680    7.565833
 O    6.398250    0.112439    7.565833
 O    4.023250    4.226060    7.565833
 O    1.648250    8.339680    7.565833
 O   11.148251    0.112439    7.565833
 O    8.773251    4.226060    7.565833
 O    6.398251    8.339680    7.565833
 O    3.101750    2.629975    1.080833
 O    0.726750    6.743595    1.080833
 O   -1.648250   10.857216    1.080833
 O    7.851750    2.629975    1.080833
 O    5.476750    6.743595    1.080833
 O    3.101751   10.857216    1.080833
 O    1.453500    2.742414   11.889167
 O   -0.921500    6.856035   11.889167
 O   -3.296500   10.969655   11.889167
 O    6.203499    2.742414   11.889167
 O    3.828499    6.856035   11.889167
 O    1.453499   10.969655   11.889167
 O   10.953500    2.742414   11.889167
 O    8.578500    6.856035   11.889167
 O    6.203499   10.969655   11.889167
 O   -1.453500    2.742414    5.404167
 O   -3.828500    6.856035    5.404167
 O   -6.203500   10.969655    5.404167
 O    3.296500    2.742414    5.404167
 O    0.921500    6.856035    5.404167
 O   -1.453500   10.969655    5.404167
 O    8.046499    2.742414    5.404167
 O    5.671499    6.856035    5.404167
 O    3.296499   10.969655    5.404167
 O   -0.726750    4.001182   11.889167
 O   -3.101750    8.114802   11.889167
 O    4.023250    4.001182   11.889167
 O    1.648250    8.114802   11.889167
 O    8.773250    4.001182   11.889167
 O    6.398250    8.114802   11.889167
 O    0.726750    1.483646    5.404167
 O   -1.648250    5.597266    5.404167
 O   -4.023250    9.710888    5.404167
 O    5.476750    1.483646    5.404167
 O    3.101750    5.597266    5.404167
 O    0.726750    9.710888    5.404167
 O   10.226749    1.483646    5.404167
 O    7.851750    5.597266    5.404167
 O    5.476749    9.710888    5.404167
 O   -0.726750    1.483646   11.889167
 O   -3.101750    5.597266   11.889167
 O   -5.476750    9.710888   11.889167
 O    4.023250    1.483646   11.889167
 O    1.648250    5.597266   11.889167
 O   -0.726750    9.710888   11.889167
 O    8.773250    1.483646   11.889167
 O    6.398250    5.597266   11.889167
 O    4.023250    9.710888   11.889167
 O    0.726750    4.001182    5.404167
 O   -1.648250    8.114802    5.404167
 O    5.476749    4.001182    5.404167
 O    3.101749    8.114802    5.404167
 O   10.226749    4.001182    5.404167
 O    7.851749    8.114802    5.404167
Al    0.000000    0.000000    4.500590
Al   -2.375000    4.113621    4.500590
Al   -4.750000    8.227242    4.500590
Al    4.750000    0.000000    4.500590
Al    2.375000    4.113621    4.500590
Al    0.000000    8.227242    4.500590
Al    9.500000    0.000000    4.500590
Al    7.125000    4.113621    4.500590
Al    4.750000    8.227242    4.500590
Al    0.000000    0.000000    8.469410
Al   -2.375000    4.113621    8.469410
Al   -4.750000    8.227242    8.469410
Al    4.750000    0.000000    8.469410
Al    2.375000    4.113621    8.469410
Al    0.000000    8.227242    8.469410
Al    9.500000    0.000000    8.469410
Al    7.125000    4.113621    8.469410
Al    4.750000    8.227242    8.469410
Al    0.000000    0.000000    1.984410
Al   -2.375000    4.113621    1.984410
Al   -4.750000    8.227242    1.984410
Al    4.750000    0.000000    1.984410
Al    2.375000    4.113621    1.984410
Al    0.000000    8.227242    1.984410
Al    9.500000    0.000000    1.984410
Al    7.125000    4.113621    1.984410
Al    4.750000    8.227242    1.984410
Al    0.000000    0.000000   10.985590
Al   -2.375000    4.113621   10.985590
Al   -4.750000    8.227242   10.985590
Al    4.750000    0.000000   10.985590
Al    2.375000    4.113621   10.985590
Al    0.000000    8.227242   10.985590
Al    9.500000    0.000000   10.985590
Al    7.125000    4.113621   10.985590
Al    4.750000    8.227242   10.985590
Al    2.375000    1.371207    8.823923
Al    0.000000    5.484828    8.823923
Al   -2.375000    9.598448    8.823923
Al    7.125000    1.371207    8.823923
Al    4.750000    5.484828    8.823923
Al    2.375000    9.598448    8.823923
Al   11.875000    1.371207    8.823923
Al    9.500000    5.484828    8.823923
Al    7.125000    9.598448    8.823923
Al    2.375000    1.371207   12.792744
Al    0.000000    5.484828   12.792744
Al   -2.375000    9.598448   12.792744
Al    7.125000    1.371207   12.792744
Al    4.750000    5.484828   12.792744
Al    2.375000    9.598448   12.792744
Al   11.875000    1.371207   12.792744
Al    9.500000    5.484828   12.792744
Al    7.125000    9.598448   12.792744
Al    2.375000    1.371207    6.307744
Al    0.000000    5.484828    6.307744
Al   -2.375000    9.598448    6.307744
Al    7.125000    1.371207    6.307744
Al    4.750000    5.484828    6.307744
Al    2.375000    9.598448    6.307744
Al   11.875000    1.371207    6.307744
Al    9.500000    5.484828    6.307744
Al    7.125000    9.598448    6.307744
Al    2.375000    1.371207    2.338924
Al    0.000000    5.484828    2.338924
Al   -2.375000    9.598448    2.338924
Al    7.125000    1.371207    2.338924
Al    4.750000    5.484828    2.338924
Al    2.375000    9.598448    2.338924
Al   11.875000    1.371207    2.338924
Al    9.500000    5.484828    2.338924
Al    7.125000    9.598448    2.338924
Al    0.000000    2.742414    0.177256
Al   -2.375000    6.856035    0.177256
Al   -4.750000   10.969655    0.177256
Al    4.750000    2.742414    0.177256
Al    2.375000    6.856035    0.177256
Al    0.000000   10.969655    0.177256
Al    9.500000    2.742414    0.177256
Al    7.125000    6.856035    0.177256
Al    4.750000   10.969655    0.177256
Al    0.000000    2.742414    4.146077
Al   -2.375000    6.856035    4.146077
Al   -4.750000   10.969655    4.146077
Al    4.750000    2.742414    4.146077
Al    2.375000    6.856035    4.146077
Al    0.000000   10.969655    4.146077
Al    9.500000    2.742414    4.146077
Al    7.125000    6.856035    4.146077
Al    4.750000   10.969655    4.146077
Al    0.000000    2.742414   10.631077
Al   -2.375000    6.856035   10.631077
Al   -4.750000   10.969655   10.631077
Al    4.750000    2.742414   10.631077
Al    2.375000    6.856035   10.631077
Al    0.000000   10.969655   10.631077
Al    9.500000    2.742414   10.631077
Al    7.125000    6.856035   10.631077
Al    4.750000   10.969655   10.631077
Al    0.000000    2.742414    6.662257
Al   -2.375000    6.856035    6.662257
Al   -4.750000   10.969655    6.662257
Al    4.750000    2.742414    6.662257
Al    2.375000    6.856035    6.662257
Al    0.000000   10.969655    6.662257
Al    9.500000    2.742414    6.662257
Al    7.125000    6.856035    6.662257
Al    4.750000   10.969655    6.662257
