8
ATOMIC_POSITIONS
Pt 21.26135874 22.18791043 25.46985037
Pt 19.15538815 27.78908448 28.71748443
Pt 18.66752435 27.38293595 24.77232633
Pt 22.6229539 24.4382306 29.44108293
Pt 18.23883387 25.56428571 26.29823125
Pt 20.62530156 26.23754208 27.28330487
Pt 23.31591014 22.09819444 30.61132061
Pt 22.31454355 24.23525045 26.75252005
