8
ATOMIC_POSITIONS
Pt 18.71966118 28.70268763 21.77158975
Pt 21.05842523 27.99854928 20.69376297
Pt 17.01382832 29.65598355 23.60398072
Pt 15.7948225 27.51365836 22.56894808
Pt 19.78845922 30.69101958 20.79100593
Pt 17.77278153 26.06387965 21.46152747
Pt 14.31542446 32.66696662 24.7599887
Pt 16.59968167 32.22950958 23.42123789
