8
ATOMIC_POSITIONS
Pt 27.40792884 29.7912026 30.34129519
Pt 25.64245397 29.34742641 28.41497838
Pt 25.91087712 31.73288542 28.09298022
Pt 23.16178565 30.71392865 30.92875483
Pt 25.24884027 29.60359825 31.92984887
Pt 29.82098099 29.83118439 29.73479667
Pt 27.83929097 27.55407873 31.6395335
Pt 29.57505599 29.4354692 27.11862444
