8
ATOMIC_POSITIONS
Pt 34.10473265 34.69518433 27.72457345
Pt 31.88355337 32.01819911 29.91694952
Pt 34.30524066 32.29948503 25.4743668
Pt 29.5827558 30.14488817 31.02157762
Pt 30.20047359 30.75552198 28.56361272
Pt 32.96049042 32.24287696 27.66280461
Pt 29.45455631 28.46460161 33.05817938
Pt 30.02759231 33.8604921 30.57438999
