8
ATOMIC_POSITIONS
Pt 19.5490373 30.68758719 35.56306713
Pt 20.23227418 32.75200561 29.36583863
Pt 19.16020053 33.75259858 31.58168022
Pt 20.12649303 32.24232847 33.45749528
Pt 17.3594918 35.69930566 31.62021493
Pt 17.33723109 33.75769189 29.73281921
Pt 21.4663957 34.21820044 31.72669012
Pt 17.49088058 35.87107226 28.15545033
