8
ATOMIC_POSITIONS
Pt 30.13946801 24.83860307 26.38344045
Pt 31.21240458 20.54667717 26.99758739
Pt 29.44314325 23.64800818 24.12506958
Pt 32.01872553 27.19246688 29.47215521
Pt 31.83171344 23.08333676 27.26926392
Pt 34.4832819 24.7132397 30.85455406
Pt 32.90862367 24.73786198 29.12589458
Pt 35.09192212 24.98916166 27.5988933
