8
ATOMIC_POSITIONS
Pt 26.59657476 21.350745 22.00674174
Pt 29.19882804 25.13582264 17.67623889
Pt 29.76333806 24.75311857 22.89815758
Pt 29.14486869 25.20367494 20.31621945
Pt 25.58578878 24.92364138 20.52222113
Pt 29.99977853 22.16597099 23.16893118
Pt 27.5001589 23.78473147 21.79207441
Pt 25.57792319 26.22833917 18.17129158
