8
ATOMIC_POSITIONS
Pt 21.54413806 25.87505575 14.91431124
Pt 23.92570261 23.4031158 21.18993304
Pt 28.02947773 24.0400861 15.77139909
Pt 26.02765754 27.47326646 17.9788073
Pt 25.994663 25.53797283 16.14413507
Pt 20.62710546 28.37049971 14.95407396
Pt 23.52458267 24.65749718 16.09131423
Pt 23.82179372 24.24879797 18.68520156
