8
ATOMIC_POSITIONS
Pt 38.44967402 24.14294154 33.68955544
Pt 38.67957829 26.90210644 34.26212343
Pt 38.91164715 26.19527088 31.7667811
Pt 39.3216798 31.44875816 32.97912208
Pt 36.81584392 25.56677347 29.61487145
Pt 35.41640911 27.27420895 31.84304574
Pt 36.69717136 24.93325343 32.13129355
Pt 38.07660298 29.11957545 33.13094887
