8
ATOMIC_POSITIONS
Pt 22.04440329 35.51771139 23.92747334
Pt 19.36467946 35.23761501 24.18356806
Pt 23.29610861 37.2473176 22.55142197
Pt 21.52714282 36.86288916 25.99750433
Pt 23.14084999 37.13599323 19.65108311
Pt 24.0905561 39.83444437 22.64388134
Pt 20.83534522 33.61028972 20.53555723
Pt 23.08406527 34.97974575 21.0755736
