8
ATOMIC_POSITIONS
Pt 27.3331185 19.69015455 33.21043662
Pt 24.8872238 20.59232873 32.79222365
Pt 27.22203848 19.87273814 30.62645461
Pt 24.4730698 22.81295328 31.29248172
Pt 22.60153849 24.12622489 35.44823795
Pt 22.88545306 22.51847854 33.44003905
Pt 23.33280019 19.75188915 30.76026019
Pt 26.64015776 23.54509393 32.67754209
