8
ATOMIC_POSITIONS
Pt 27.37001859 26.09429915 24.47359234
Pt 29.75410077 27.63627862 24.00091865
Pt 27.36364937 23.03203988 26.70397491
Pt 28.57260601 25.85818218 22.3630278
Pt 30.31851921 27.23908858 20.87905457
Pt 27.95305985 28.33296393 20.87554315
Pt 26.8071021 24.30464999 21.8413296
Pt 28.78652296 23.92470331 24.61884205
