8
ATOMIC_POSITIONS
Pt 23.4206177 38.1273638 24.27186926
Pt 25.34417974 36.80627627 23.04408113
Pt 22.45614323 39.36235612 26.25449955
Pt 21.40656537 34.27265663 21.92307776
Pt 25.38068501 39.47529067 25.42175559
Pt 20.54487723 37.97147237 20.84895584
Pt 21.68166596 36.68095607 22.9293474
Pt 20.47151882 40.59585378 21.34269948
