8
ATOMIC_POSITIONS
Pt 20.83600905 33.64568393 19.95384484
Pt 19.26894069 27.76344915 19.12944034
Pt 20.68968366 29.96010719 19.13620904
Pt 19.39154491 31.54150221 20.8926725
Pt 19.81499593 29.24458924 22.19155694
Pt 16.20502909 25.0006248 18.30273122
Pt 17.37251388 26.49481052 20.12456115
Pt 21.94415108 28.09812146 17.83529889
