8
ATOMIC_POSITIONS
Pt 32.00026378 31.26666585 24.57432031
Pt 33.4673118 31.52155775 26.79811899
Pt 33.36039935 29.19683165 27.91185662
Pt 34.62713314 33.3409393 29.78754231
Pt 34.97444184 30.46922665 30.83273455
Pt 32.98620954 31.22860673 29.45255428
Pt 34.11084702 28.01039502 29.93416392
Pt 30.8229744 29.03308119 28.56911865
