8
ATOMIC_POSITIONS
Pt 28.28657159 12.17846563 22.60748247
Pt 25.21695325 14.7359427 23.91300752
Pt 30.40892155 15.37446622 25.59466045
Pt 30.59531465 13.33831664 21.90574335
Pt 27.02949561 15.5921193 22.1803995
Pt 29.20311236 14.77450314 23.58022241
Pt 30.31113266 13.92245273 19.36674939
Pt 26.4608028 13.34137427 21.2762679
