8
ATOMIC_POSITIONS
Pt 20.37138404 25.14118749 25.70705365
Pt 24.40577427 22.69382937 25.27108578
Pt 19.8378122 25.34072692 28.31440525
Pt 22.99524306 25.48924909 27.98963214
Pt 19.04495834 22.42455656 23.90426276
Pt 17.50868534 26.33536475 28.89135262
Pt 22.20782339 23.43932138 26.5974219
Pt 19.17523309 22.88583124 26.40987847
