8
ATOMIC_POSITIONS
Pt 12.83766557 28.29591705 30.40405225
Pt 12.48977899 23.56710443 30.678343
Pt 15.14600873 27.39595298 24.81529497
Pt 15.72726409 21.2077354 24.93868299
Pt 14.36854562 22.8506425 26.34412647
Pt 14.66056575 27.01216067 27.40922285
Pt 14.37914583 23.87470589 28.76702902
Pt 13.83615436 26.24532443 29.83281364
