8
ATOMIC_POSITIONS
Pt 28.16799532 31.31483691 30.2230845
Pt 31.38097791 31.55489416 29.34532235
Pt 25.74417481 26.87137476 26.00667094
Pt 27.50799422 28.75017766 25.98666926
Pt 27.38327175 29.40772743 28.3717715
Pt 29.84750907 29.33399206 29.41669626
Pt 32.99176436 32.79523232 31.14460173
Pt 31.10589186 27.97290614 27.53351021
