8
ATOMIC_POSITIONS
Pt 18.9708364 25.35888786 22.07367945
Pt 16.95486789 22.52659731 25.47996635
Pt 21.105338 26.00921599 25.53404716
Pt 18.5238015 25.83927255 26.1932154
Pt 20.72216035 22.65569121 23.62144874
Pt 16.13917296 21.15975156 20.74850315
Pt 18.57565086 23.98394565 24.36909143
Pt 17.31984882 22.97076288 22.28428828
