8
ATOMIC_POSITIONS
Pt 23.4247482 30.20313973 31.83792611
Pt 25.31440056 29.69328391 35.06126891
Pt 25.25955024 31.83933856 32.59770837
Pt 25.03822497 32.29679177 35.73662537
Pt 22.77632259 30.31522483 34.44899246
Pt 20.46159904 25.69550025 35.55868175
Pt 21.45627392 28.11782713 34.83342271
Pt 23.90203282 29.43523059 29.35132326
