8
ATOMIC_POSITIONS
Pt 27.41401269 20.90334523 33.67828118
Pt 28.65088381 22.21382872 36.75544422
Pt 25.9247672 23.13805727 35.18212934
Pt 26.09671239 20.57300405 35.99518061
Pt 28.41902825 19.51271513 36.82878445
Pt 26.22590502 25.48289958 34.4788941
Pt 27.81105584 24.73436161 36.16062362
Pt 30.11406363 25.30557755 37.44664732
