8
ATOMIC_POSITIONS
Pt 22.22665655 25.43590153 27.86975962
Pt 21.59836819 25.53933942 32.61400211
Pt 22.95021882 25.51516512 30.61582544
Pt 23.83778334 27.53578773 28.19944819
Pt 25.00324279 24.72066773 31.80913901
Pt 19.97003598 28.44220169 31.48622609
Pt 20.95612666 27.00494977 29.52073086
Pt 23.51398564 28.09558116 30.86999805
