8
ATOMIC_POSITIONS
Pt 22.48375822 24.01689628 27.2772784
Pt 22.05809018 26.27617241 28.64257062
Pt 21.86962879 23.42758122 29.82397132
Pt 19.46609431 24.45964175 24.74115699
Pt 20.38608807 25.54046776 26.6731823
Pt 21.52330023 26.156224 24.28216387
Pt 24.30961655 24.60868587 29.7016631
Pt 21.81857473 22.32509083 25.37035129
