8
ATOMIC_POSITIONS
Pt 29.10477899 27.23486704 25.1257901
Pt 26.51223467 27.49455376 27.4572818
Pt 30.542847 26.74777215 22.95981832
Pt 25.38913702 25.34643517 26.23727386
Pt 24.62712553 28.12028071 28.91061932
Pt 27.18131574 29.61004787 28.53140107
Pt 24.02467001 23.73061817 27.91337858
Pt 27.18864276 25.61961493 24.24852841
