8
ATOMIC_POSITIONS
Pt 26.70722403 30.84892801 25.48575211
Pt 27.17925864 31.11194642 28.75462738
Pt 28.17951051 29.20359767 24.06578759
Pt 28.78812415 30.18864135 26.97711143
Pt 25.93193563 28.53902489 24.84258969
Pt 31.54820305 32.3471424 26.93337323
Pt 30.04291693 28.05577863 25.48548599
Pt 29.53098931 31.91800412 25.22834804
