8
ATOMIC_POSITIONS
Pt 33.53994084 27.20434592 22.21491085
Pt 35.10504397 29.27722842 22.26717773
Pt 33.38777889 29.3583736 24.21423061
Pt 32.83300373 30.24752661 27.35081063
Pt 35.02069827 32.80004546 27.16008718
Pt 34.95557467 30.71978529 25.86933033
Pt 33.16068933 32.2478925 24.68903929
Pt 36.47095221 29.05276354 24.52084965
