8
ATOMIC_POSITIONS
Pt 23.25994152 33.74292012 41.37839382
Pt 27.07259727 28.75144372 40.61906883
Pt 25.39358721 32.68827455 40.17679866
Pt 25.18865699 27.04991753 39.9813902
Pt 28.97466656 29.28659858 42.28626849
Pt 25.1154624 30.3575463 41.39695178
Pt 28.18709347 26.75545138 41.28005234
Pt 27.70814457 32.68563472 41.0206364
