8
ATOMIC_POSITIONS
Pt 26.34732081 27.16005704 35.13560461
Pt 27.37029647 31.23297039 36.83777268
Pt 24.40363701 28.69786838 32.93632325
Pt 24.1867947 30.44092784 31.02578529
Pt 23.72406587 26.98614852 34.74430819
Pt 22.71176887 25.31540596 36.48117723
Pt 23.42661618 29.6087778 35.15639431
Pt 25.02344355 31.57075771 35.64842862
