8
ATOMIC_POSITIONS
Pt 28.15879821 25.86647575 28.84435218
Pt 31.29218278 29.28918738 28.7523481
Pt 28.46792469 25.46706187 31.50483833
Pt 30.65186103 26.65192474 28.43958842
Pt 30.35794308 28.02104084 30.7422079
Pt 29.85970065 25.02610169 26.55103679
Pt 28.83537245 27.53442761 26.82863201
Pt 25.72362941 26.95623001 28.78089527
