8
ATOMIC_POSITIONS
Pt 28.20972586 26.62031204 30.76018666
Pt 24.3619769 28.89253724 29.47419286
Pt 23.88555161 27.35964749 27.23601618
Pt 29.40585483 27.29112966 32.85246908
Pt 27.64704756 29.1410303 30.81784448
Pt 26.70081478 28.04921943 28.63615674
Pt 22.87003873 29.77578897 27.52864717
Pt 25.21980841 26.90340733 31.06341118
