8
ATOMIC_POSITIONS
Pt 23.09366021 29.18812311 36.50695775
Pt 21.07166655 28.39769343 31.92949473
Pt 24.24518152 27.95411238 34.41270202
Pt 25.40211743 30.65170301 33.93060514
Pt 21.41785245 27.27485101 37.14625031
Pt 22.86223325 32.09557641 32.84460847
Pt 25.31397313 30.3659144 36.50058093
Pt 23.40814265 29.54493143 32.46831426
