8
ATOMIC_POSITIONS
Pt 31.56949795 28.39596337 24.57540236
Pt 25.59625957 33.07449159 23.2407811
Pt 31.13177206 29.31647202 28.03375844
Pt 26.78413629 30.29971887 26.23266771
Pt 29.87232107 30.51102781 24.76199498
Pt 27.68874988 32.04584486 24.56906116
Pt 28.38468777 32.80650171 29.08538983
Pt 29.16413975 30.88034796 27.39492993
