8
ATOMIC_POSITIONS
Pt 35.5297205 40.98069696 31.80589634
Pt 34.74174732 38.44966768 31.27891667
Pt 34.50435114 35.80166683 31.1319047
Pt 32.47364761 37.50771228 30.81429739
Pt 30.49214756 36.72224657 29.17263668
Pt 37.43554562 38.34050089 31.34996236
Pt 34.56283917 38.63658079 28.60462859
Pt 35.3656627 40.89126939 27.38538716
