8
ATOMIC_POSITIONS
Pt 18.05507672 28.47151648 18.33512723
Pt 19.90308091 28.64243591 20.277687
Pt 20.16201248 27.61289476 23.58498807
Pt 23.07034353 26.73841013 21.72867912
Pt 19.39509924 30.95375487 19.982682
Pt 21.53979178 31.66915593 21.83798117
Pt 22.14726224 29.24209251 21.58748003
Pt 19.49719456 29.98909001 22.45476693
