8
ATOMIC_POSITIONS
Pt 28.45359346 27.59417723 26.64129545
Pt 32.41574058 22.12021171 31.07927493
Pt 32.37616696 25.85404106 26.81395025
Pt 29.78167975 24.21521496 28.87303069
Pt 29.77370772 22.41874849 30.87822704
Pt 28.32230393 24.81927789 26.81216529
Pt 30.87460563 26.3042767 30.61228031
Pt 30.24337135 26.63519037 28.14975557
