8
ATOMIC_POSITIONS
Pt 27.0302243 27.44717213 21.64080977
Pt 26.22066715 29.24637657 23.2427476
Pt 24.21072307 31.49741617 23.14300884
Pt 22.98613055 27.60676401 25.38613302
Pt 26.11249459 30.19053465 20.71834638
Pt 26.4967156 30.77341052 25.44324415
Pt 28.09985191 31.91341597 21.36043166
Pt 23.97766013 30.06158163 25.42006773
