8
ATOMIC_POSITIONS
Pt 32.62438912 34.30374589 23.55212151
Pt 30.81635854 34.93278419 27.81583018
Pt 34.04038265 32.28769282 22.51264234
Pt 32.25807371 35.80168736 25.7093963
Pt 31.12085423 30.51078249 26.12323522
Pt 29.97584341 35.43726493 24.61750937
Pt 34.7881091 35.5080972 24.88193264
Pt 31.0241107 32.87420521 25.0293959
