8
ATOMIC_POSITIONS
Pt 26.37101662 34.0830105 28.08193452
Pt 27.89724603 36.32827305 27.97678487
Pt 27.21031576 35.62864501 25.53721309
Pt 29.90939721 34.59345295 28.15177969
Pt 27.37321306 33.60330939 23.91382591
Pt 29.26369166 30.22110362 25.36569117
Pt 25.35700552 35.10108996 23.17946889
Pt 27.89853545 32.2267735 26.07592049
